41
dHf = -150.0, S = 187.3, S(+conf) = 193.1 cal/(mol K)
 H    -0.635573    -0.744815     0.503642
 C    -0.389703    -0.121158     1.364367
 C     0.915584    -0.580103     2.003632
 H    -1.217659    -0.188045     2.074167
 H    -0.320148     0.912402     1.025662
 C     1.304900     0.187459     3.257330
 H     0.829362    -1.632522     2.295622
 H     1.735118    -0.520828     1.281995
 C     2.542719    -0.387551     3.926494
Cl     1.602966     1.944386     2.848699
 H     0.474599     0.213915     3.960580
 C     2.932699     0.282320     5.232452
 H     2.371597    -1.450558     4.105856
 H     3.380142    -0.304435     3.228607
 C     4.257459    -0.180776     5.834318
Cl     1.624297     0.068217     6.469610
 H     2.998410     1.357046     5.091913
 C     5.479074     0.146593     4.969282
Cl     4.246829    -1.973647     6.113159
 H     4.375570     0.264296     6.817573
 C     6.809534    -0.284597     5.582431
Cl     5.495839     1.917047     4.596420
 H     5.393242    -0.351015     4.008021
 C     8.026857     0.032221     4.714012
Cl     7.041838     0.481084     7.203941
 H     6.762013    -1.353156     5.768461
 C     9.357181    -0.399677     5.320719
Cl     7.792106    -0.730997     3.085907
 H     8.073603     1.100500     4.526744
 C    10.580209    -0.095309     4.455182
Cl     9.335900    -2.172265     5.695289
 H     9.468200     0.097683     6.279999
 C    11.914344    -0.503290     5.072322
Cl    10.570838     1.670825     4.053099
 H    10.485891    -0.609813     3.500329
 C    13.111597    -0.218099     4.188189
Cl    12.145879     0.266696     6.698748
 H    11.850192    -1.568042     5.283218
 H    13.240607     0.850888     4.031100
 H    14.015268    -0.618165     4.645061
 H    12.971535    -0.699777     3.216898
