35
dHf = -121.8, S = 157.6, S(+conf) = 166.5 cal/(mol K)
 H     0.784769    -0.593808    -0.019355
 C     0.257998    -0.249813     0.867746
 C     1.252105     0.115712     1.957974
 C    -0.757643    -1.278711     1.322643
Cl    -0.617766     1.254673     0.313865
 C     2.357693     1.072709     1.546395
 H     1.700559    -0.810937     2.329716
 H     0.707029     0.569747     2.791290
 C     3.236897     1.469287     2.720485
Cl     3.386772     0.297000     0.250520
 H     1.938338     1.953854     1.068287
 C     4.328607     2.478667     2.407124
 H     3.716856     0.574125     3.127538
 H     2.590168     1.877474     3.502730
 C     5.224369     2.726451     3.611078
Cl     3.575169     4.045505     1.847690
 H     4.907354     2.133624     1.554472
 C     6.318920     3.765667     3.401721
 H     5.686242     1.773432     3.875475
 H     4.617271     3.043462     4.460460
 C     7.190534     3.550300     2.170236
Cl     7.317394     3.843794     4.912141
 H     5.879604     4.754013     3.305865
 C     8.331019     4.549416     1.979949
Cl     7.886255     1.871630     2.170876
 H     6.541930     3.594508     1.295899
 C     9.121700     4.357072     0.700767
Cl     7.601104     6.221326     1.958478
 H     8.976314     4.534947     2.854085
 H     9.635576     3.396747     0.718535
 H     8.464991     4.388092    -0.169896
 H     9.863342     5.148105     0.602124
 H    -1.315265    -0.920375     2.189383
 H    -1.465620    -1.505542     0.526796
 H    -0.241495    -2.201863     1.599336
