41
dHf = -131.9, S = 169.1, S(+conf) = 184.4 cal/(mol K)
 C    -1.881221     1.364574     0.643925
 H    -1.051672     0.831658     1.113414
 C    -1.356771     2.678730     0.094688
 H    -2.132961     3.199254    -0.461142
 H    -2.602762     1.589445     1.432311
 C    -0.761962     3.565224     1.168431
 H     0.045424     3.052160     1.692866
 H    -0.371508     4.488957     0.743831
 H    -1.538391     3.819667     1.894401
 C    -1.574144    -1.730551     0.522272
 H    -1.189112    -1.318714     1.454443
 H    -1.863338    -2.761794     0.729765
 C    -2.826148    -0.959110     0.101593
 H    -3.350102    -1.490206    -0.687602
 C    -2.537393     0.456521    -0.381324
 H    -1.904827     0.368387    -1.261926
 C    -0.434018    -1.726435    -0.485882
 H    -0.187782    -0.713831    -0.788633
 C     0.824293    -2.434079     0.029352
 H     1.291021    -2.974445    -0.796005
 H     0.549453    -3.178741     0.778033
 C     1.908287    -1.518051     0.590136
 H     2.719736    -2.134581     0.968618
 C     2.449342    -0.514554    -0.415194
 H     2.709942    -1.061650    -1.326244
 H     1.670477     0.202803    -0.679336
 C     3.656198     0.286776     0.042049
 H     3.459253     0.746161     1.009078
 C     4.066621     1.343234    -0.971265
 H     4.333218     0.850972    -1.910656
 H     3.172040     1.942516    -1.171715
 C     5.196712     2.255073    -0.508639
 H     4.933627     2.761531     0.423212
 H     6.114211     1.692050    -0.337635
 H     5.402688     3.020509    -1.258256
Cl    -0.069921     2.342886    -1.176854
Cl    -4.050347     1.222152    -1.025206
Cl    -0.997891    -2.509450    -2.037370
Cl     5.050621    -0.853987     0.367758
Cl     1.319343    -0.627136     2.082561
Cl    -3.970242    -0.961783     1.509576
