38
dHf = -116.8, S = 154.5, S(+conf) = 171.8 cal/(mol K)
 C    -1.888950     1.941825     0.903328
 H    -1.028206     1.527009     1.428782
 C    -1.399492     2.929691    -0.150920
 H    -0.814143     3.698504     0.349401
 H    -2.418418     2.552450     1.642989
 C    -2.487698     3.564927    -0.993100
 H    -3.004293     2.826321    -1.605193
 H    -3.221388     4.040625    -0.336567
 H    -2.072062     4.324249    -1.653964
 C    -1.088715    -1.013834     0.249191
 H    -0.382730    -0.254188     0.575180
 C    -2.249750    -0.269602    -0.394417
 H    -1.875626     0.138594    -1.329580
 C    -2.856446     0.834191     0.465327
 H    -3.696018     1.265148    -0.080314
 H    -3.274383     0.373383     1.360949
 C    -0.387108    -1.994099    -0.675989
 H    -1.097671    -2.752245    -1.005990
 H    -0.106094    -1.424522    -1.568491
 C     0.850643    -2.675355    -0.084739
 H     1.361118    -3.208506    -0.888829
 H     0.532145    -3.427549     0.638688
 C     1.832677    -1.739386     0.622270
 H     2.701851    -2.310616     0.957466
 H     1.362932    -1.337817     1.520677
 C     2.319921    -0.561973    -0.208025
 H     1.500077    -0.037233    -0.691142
 C     3.155731     0.456963     0.565087
 H     3.953683    -0.051871     1.103804
 C     3.690955     1.612942    -0.255537
 H     2.877336     2.129802    -0.765009
 H     4.204833     2.323539     0.390238
 H     4.394799     1.244235    -1.000645
Cl    -0.160616     2.167293    -1.282677
Cl    -1.598518    -1.820856     1.796682
Cl     3.329110    -1.197362    -1.593662
Cl     2.083252     1.152873     1.883140
Cl    -3.573471    -1.406541    -0.900307
