41
dHf = -116.4, S = 156.1, S(+conf) = 176.9 cal/(mol K)
 C    -1.277278     1.490685     0.658858
 H    -0.318082     0.989042     0.798078
 C    -1.106072     2.547522    -0.418484
 H    -2.069161     2.969285    -0.696920
 H    -1.506169     1.998243     1.600688
 C    -0.123801     3.633777    -0.033118
 H    -0.503227     4.163465     0.844805
 H     0.849292     3.208675     0.214688
 H     0.000853     4.353629    -0.841049
 C    -1.064736    -1.566166     1.275005
 H    -0.217725    -0.974397     1.629255
 H    -1.160160    -2.409745     1.963403
 C    -2.345172    -0.726413     1.346143
 H    -3.205184    -1.357285     1.124271
 H    -2.471640    -0.358685     2.367410
 C    -2.356300     0.456014     0.386162
 H    -2.297641     0.110028    -0.642444
 C    -0.701179    -2.100747    -0.102463
 H    -0.668202    -1.295043    -0.831301
 C     0.603033    -2.890835    -0.138502
 H     0.725413    -3.302675    -1.142950
 H     0.513204    -3.742223     0.540769
 C     1.843600    -2.069420     0.234682
 H     2.702019    -2.744939     0.237746
 H     1.751142    -1.694013     1.255092
 C     2.110906    -0.900886    -0.714421
 H     2.417139    -1.288087    -1.693291
 H     1.202804    -0.325489    -0.890342
 C     3.189286     0.074055    -0.263927
 H     3.279163     0.872256    -0.999810
 C     4.551514    -0.544298     0.004455
 H     4.477758    -1.233228     0.848276
 H     4.794917    -1.151673    -0.875075
 C     5.662377     0.470585     0.249387
 H     6.621224    -0.031505     0.386898
 H     5.761286     1.155691    -0.596181
 H     5.460598     1.064697     1.140981
Cl    -0.522575     1.737548    -1.962196
Cl    -3.993002     1.265117     0.471557
Cl    -2.045104    -3.174673    -0.719726
Cl     2.604950     0.961315     1.241241
