38
dHf = -100.7, S = 143.8, S(+conf) = 165.9 cal/(mol K)
 C     3.091484     0.737107    -0.815889
 H     2.439188     0.341624    -1.596388
 C     2.614009     2.134750    -0.430021
 H     2.720993     2.785597    -1.295682
 H     4.065601     0.888129    -1.295180
 C     3.310453     2.748829     0.767531
 H     4.390184     2.753492     0.594192
 H     2.981548     3.775424     0.923070
 H     3.113381     2.184554     1.678290
 C     0.920518    -1.330724     0.169198
 H     0.623881    -0.591368    -0.568349
 C     2.037752    -0.775882     1.037092
 H     1.600351     0.048501     1.606413
 H     2.330996    -1.539183     1.763075
 C     3.288037    -0.298909     0.295692
 H     3.996019     0.087985     1.032786
 H     3.771175    -1.166524    -0.157395
 C    -0.282313    -1.784038     0.980415
 H     0.028328    -2.589870     1.650241
 H    -0.563908    -0.943695     1.623168
 C    -1.496270    -2.238633     0.169339
 H    -2.291790    -2.505563     0.866984
 H    -1.240923    -3.146151    -0.380896
 C    -2.029449    -1.207518    -0.827017
 H    -2.910960    -1.615238    -1.328382
 H    -1.285755    -1.034057    -1.611932
 C    -2.383408     0.154815    -0.250710
 H    -1.543639     0.572236     0.301409
 C    -2.840091     1.148015    -1.307213
 H    -2.052889     1.171073    -2.068642
 H    -3.738524     0.759185    -1.794387
 C    -3.082285     2.560857    -0.788998
 H    -3.358812     3.228182    -1.607026
 H    -3.884467     2.577484    -0.051205
 H    -2.182305     2.964667    -0.319506
Cl     0.794734     2.174264    -0.139532
Cl     1.543911    -2.725698    -0.845844
Cl    -3.683488    -0.040614     1.027554
