38
dHf = -148.7, S = 184.9, S(+conf) = 186.6 cal/(mol K)
 H     0.306033    -0.156674    -0.036162
 C     0.165092    -0.076495     1.041044
 C     1.505996     0.064528     1.734437
 H    -0.472886     0.783515     1.249642
 H    -0.339462    -0.974309     1.394098
 C     2.254876     1.349929     1.382253
Cl     1.228493     0.066248     3.536018
 H     2.144722    -0.793851     1.546453
 C     3.570400     1.559737     2.130700
Cl     2.537936     1.389982    -0.410022
 H     1.603554     2.194441     1.598068
 C     4.322420     2.836948     1.742697
Cl     4.665901     0.145685     1.903409
 H     3.340353     1.586638     3.191075
 C     3.445195     4.087237     1.664176
Cl     5.687973     3.092752     2.896931
 H     4.777284     2.686169     0.767147
 C     4.215289     5.381092     1.380784
Cl     2.491551     4.291547     3.184452
 H     2.718645     3.936255     0.870181
 C     5.236891     5.263272     0.252187
Cl     3.039870     6.706204     1.044464
 H     4.750359     5.680968     2.276096
 C     5.990558     6.557997    -0.050825
Cl     4.436567     4.681355    -1.266516
 H     5.959387     4.497385     0.519808
 C     7.010270     6.436701    -1.179909
Cl     6.788741     7.123970     1.470389
 H     5.284193     7.338095    -0.317647
 C     7.785678     7.716225    -1.491175
Cl     8.193150     5.109392    -0.821888
 H     6.479266     6.115717    -2.072994
 C     8.729582     7.595361    -2.671248
Cl     6.566610     9.023403    -1.857592
 H     8.305614     8.057536    -0.600146
 H     8.195126     7.268269    -3.564222
 H     9.516035     6.875047    -2.449300
 H     9.188748     8.560826    -2.877165
