38
dHf = -140.8, S = 175.6, S(+conf) = 181.2 cal/(mol K)
 H    -0.089144    -0.334349     0.012539
 C     0.026698     0.074279     1.015520
 C     1.493362     0.108334     1.398156
 H    -0.537237    -0.545740     1.713788
 H    -0.387696     1.081008     1.034211
 C     2.159253    -1.263092     1.501992
Cl     1.635527     0.925516     3.027452
 H     2.062226     0.741038     0.718296
 C     3.629937    -1.217463     1.883392
Cl     2.003202    -2.080137    -0.123710
 H     1.599814    -1.892212     2.190789
 C     4.301667    -2.572214     2.032637
 H     3.721712    -0.667467     2.820599
 H     4.174492    -0.656643     1.117644
 C     5.780877    -2.429811     2.348094
Cl     3.480443    -3.521833     3.359611
 H     4.158875    -3.174892     1.140078
 C     6.538501    -3.744796     2.421874
 H     5.895562    -1.915281     3.306886
 H     6.232706    -1.795924     1.583139
 C     7.947282    -3.593726     2.980391
Cl     6.554952    -4.551856     0.798693
 H     6.008978    -4.437698     3.070338
 C     8.734546    -4.899187     3.091823
Cl     8.910861    -2.421869     1.984787
 H     7.866001    -3.136017     3.964785
 C    10.149632    -4.744719     3.640759
Cl     7.783866    -6.057430     4.107742
 H     8.803719    -5.362389     2.111806
 C    10.944630    -6.044224     3.761512
Cl    10.112326    -3.933547     5.263878
 H    10.684692    -4.057861     2.989468
 C    12.374799    -5.853448     4.227007
Cl    10.973881    -6.827506     2.113820
 H    10.410323    -6.745195     4.397033
 H    12.388697    -5.458787     5.242234
 H    12.897080    -6.808716     4.216855
 H    12.906703    -5.160742     3.573320
