41
dHf = -144.2, S = 181.3, S(+conf) = 190.7 cal/(mol K)
 H    -0.597262    -0.522227     0.501633
 C    -0.127415    -0.040014     1.364111
 C     1.375097    -0.224821     1.238490
 C    -0.609889     1.399326     1.442937
 H    -0.477125    -0.563260     2.259289
 C     1.753672    -1.685023     1.059182
Cl     2.201689     0.443438     2.726226
 H     1.764168     0.374941     0.420122
 C    -2.110114     1.500839     1.670733
Cl    -0.150575     2.267792    -0.098835
 H    -0.070190     1.935479     2.221595
 C     3.239897    -1.928721     0.859274
 H     1.206309    -2.077866     0.201213
 H     1.432848    -2.252230     1.938142
 C     3.627259    -3.401625     0.934997
Cl     3.798092    -1.180930    -0.696774
 H     3.786454    -1.402994     1.638752
 C     5.117673    -3.677483     0.720789
Cl     2.671994    -4.385249    -0.240595
 H     3.335111    -3.760067     1.920161
 C     6.039925    -2.742259     1.498804
Cl     5.472695    -5.401976     1.119576
 H     5.352853    -3.565410    -0.333051
 C     7.532514    -3.021380     1.321993
Cl     5.639708    -2.794559     3.269136
 H     5.846231    -1.720777     1.182043
 C     8.451364    -2.081075     2.095748
Cl     7.908052    -2.978035    -0.447863
 H     7.750496    -4.038894     1.641298
 C     9.925977    -2.381213     1.917421
Cl     8.114595    -0.347278     1.679331
 H     8.177388    -2.165586     3.144618
 H    10.239160    -2.223617     0.887354
 H    10.121693    -3.422434     2.186829
 H    10.517661    -1.738790     2.567571
 C    -2.621337     2.921964     1.876896
 H    -2.629743     1.026455     0.833569
 H    -2.332805     0.900551     2.559912
 H    -2.449921     3.534275     0.991756
 H    -2.117519     3.400421     2.720161
 H    -3.692337     2.918251     2.085005
