41
dHf = -161.2, S = 197.5, S(+conf) = 200.6 cal/(mol K)
 H     0.492838    -0.136876     4.147536
 C     1.385340     0.378305     4.512347
 C     2.240087     0.804385     3.335758
 H     1.929424    -0.293528     5.173174
 H     1.071558     1.252655     5.080260
 C     2.623010    -0.341274     2.404141
Cl     3.710794     1.689118     3.924312
 H     1.707615     1.535463     2.732219
 C     3.462036     0.072058     1.194755
Cl     3.518144    -1.631931     3.306609
 H     1.702682    -0.812419     2.062941
 C     3.861804    -1.078985     0.278138
Cl     2.558531     1.337677     0.264723
 H     4.368915     0.559484     1.541081
 C     4.691661    -0.654254    -0.932820
Cl     2.395314    -1.966695    -0.308646
 H     4.418399    -1.799607     0.869055
 C     5.088161    -1.806534    -1.853148
Cl     6.160738     0.226057    -0.348235
 H     4.133467     0.068515    -1.519122
 C     5.919292    -1.375888    -3.061536
Cl     5.974477    -3.072296    -0.909800
 H     4.179036    -2.290009    -2.196703
 C     6.299832    -2.446611    -4.093937
Cl     4.975129    -0.099965    -3.947828
 H     6.827133    -0.881443    -2.732284
 C     7.515038    -3.319352    -3.758546
Cl     4.887213    -3.522051    -4.450850
 H     6.504159    -1.931746    -5.027285
 C     7.886301    -4.306453    -4.862629
Cl     8.915544    -2.239090    -3.376874
 H     7.335980    -3.890657    -2.856741
 C     9.093898    -5.191389    -4.553572
Cl     8.187778    -3.437088    -6.425220
 H     7.019910    -4.937483    -5.046711
 C     9.388840    -6.228581    -5.619196
Cl     8.757162    -6.057841    -2.983049
 H     9.962893    -4.570890    -4.352035
 H     9.670450    -5.738682    -6.550478
 H    10.211155    -6.865473    -5.297453
 H     8.515526    -6.856128    -5.802288
