38
dHf = -123.9, S = 162.1, S(+conf) = 175.4 cal/(mol K)
 C    -2.319631     1.078925     0.146699
 C    -1.904786     2.387933     0.817115
 H    -2.452240     2.521176     1.749053
 H    -1.718278     0.930570    -0.745075
 C    -2.004822     3.616186    -0.064321
 H    -3.045959     3.804621    -0.322760
 H    -1.610279     4.485659     0.459020
 H    -1.435797     3.475483    -0.984191
 C    -1.320353    -1.904731    -0.566347
 H    -1.384765    -2.979458    -0.713953
 C    -2.428041    -1.483855     0.408685
 H    -3.393144    -1.573064    -0.080620
 C    -2.274029    -0.124169     1.082429
 H    -3.068230    -0.017526     1.821838
 H    -1.331252    -0.104128     1.625562
 C     0.078035    -1.497464    -0.141940
 H     0.130596    -0.409966    -0.111889
 H     0.215485    -1.849527     0.886167
 C     1.196003    -2.041345    -1.023390
 H     1.046207    -1.705499    -2.049186
 H     1.152458    -3.134188    -1.037685
 C     2.585460    -1.622991    -0.539291
 H     3.343582    -2.019149    -1.219889
 H     2.777843    -2.063142     0.441123
 C     2.796040    -0.120513    -0.399417
 H     2.073467     0.324313     0.281817
 C     4.200361     0.289113     0.040760
 H     4.938301    -0.161465    -0.621231
 C     4.418006     1.783920     0.171633
 H     5.411238     1.984094     0.570524
 H     4.327663     2.261387    -0.803068
 H     3.678908     2.221690     0.844176
Cl    -0.152675     2.205918     1.332763
Cl    -1.712532    -1.222689    -2.218525
Cl     2.462229     0.681661    -2.007881
Cl     4.512908    -0.471082     1.675703
Cl    -2.461124    -2.736285     1.736962
Cl    -4.024076     1.260330    -0.471920
